<routes>
    <route id="route_ns" edges="n_t t_s"/>
    <route id="route_sn" edges="s_t t_n "/>
    <route id="route_we" edges="w_t t_e"/>
    <route id="route_ew" edges="e_t t_w"/>
    <route id="route_ne" edges="n_t t_e"/>
    <flow id="flow_ns" route="route_ns" begin="0" end="100000" probability="0.5" departSpeed="max" departPos="base" departLane="0"/>
    <flow id="flow_sn" route="route_sn" begin="0" end="100000" probability="0.5" departSpeed="max" departPos="base" departLane="0"/>
    <flow id="flow_we" route="route_we" begin="0" end="100000" probability="0.1" departSpeed="max" departPos="base" departLane="0"/>
    <flow id="flow_ew" route="route_ew" begin="0" end="100000" probability="0.1" departSpeed="max" departPos="base" departLane="0"/>
    <flow id="flow_ne" route="route_ne" begin="0" end="100000" probability="0.5" departSpeed="max" departPos="base" departLane="1"/>
</routes>
